test/test_files/validation_tests/case3012wp_resqlim.m
function mpc = case3012wp_resqlim
%CASE3012WP_RESQLIM

%% MATPOWER Case Format : Version 2
mpc.version = '2';

%%-----  Power Flow Data  -----%%
%% system MVA base
mpc.baseMVA = 100;

%% bus data
%    bus_i    type    Pd    Qd    Gs    Bs    area    Vm    Va    baseKV    zone    Vmax    Vmin
mpc.bus = [
    1    1    0    0    0    0    1    1.10676936    -0.345584834    220    1    1.11    0.95;
    2    1    0    0    0    0    1    1.10784184    0.768900525    220    1    1.11    0.95;
    3    1    0    0    0    0    1    1.06564708    -31.9312803    220    1    1.11    0.95;
    4    1    0    0    0    0    1    1.06558579    -31.9403125    220    1    1.11    0.95;
    5    1    0    0    0    0    1    1.07651494    -34.1854426    220    1    1.11    0.95;
    6    1    0    0    0    0    1    1.07460891    -6.59919335    220    1    1.11    0.95;
    7    1    0    0    0    0    1    1.07458053    -6.59928752    220    1    1.11    0.95;
    8    1    0    0    0    0    1    1.09000871    -19.3949616    220    1    1.11    0.95;
    9    1    0    0    0    0    1    1.09025684    -19.3785102    220    1    1.11    0.95;
    10    1    0    0    0    0    1    1.10965188    -22.8315688    220    1    1.11    0.95;
    11    1    0    0    0    0    1    1.02503068    -14.176684    400    1    1.05    0.95;
    12    1    0    0    0    0    1    1.0251156    -14.1679075    400    1    1.05    0.95;
    13    1    0    0    0    0    1    1.01120756    -18.6215077    400    1    1.05    0.95;
    14    1    0    0    0    0    1    1.0423808    -19.2032299    220    1    1.11    0.95;
    15    1    0    0    0    0    1    1.04258431    -19.1999472    220    1    1.11    0.95;
    16    1    0    0    0    0    1    1.042602    -19.1901343    220    1    1.11    0.95;
    17    1    0    0    0    0    1    1.03077443    -23.6637271    220    1    1.11    0.95;
    18    1    0    0    0    0    1    1.03053092    -23.2878351    220    1    1.11    0.95;
    19    1    0    0    0    0    1    1.02619613    -12.4820107    400    1    1.05    0.95;
    20    1    0    0    0    0    1    1.02624464    -12.4719088    400    1    1.05    0.95;
    21    1    0    0    0    0    1    1.02147732    -22.3303013    400    1    1.05    0.95;
    22    1    0    0    0    0    1    1.01497415    -18.3499707    400    1    1.05    0.95;
    23    1    0    0    0    0    1    1.01497415    -18.3499707    400    1    1.05    0.95;
    24    2    10.05    20.1    0    0    1    1.08673    -26.3121038    220    1    1.11    0.95;
    25    2    10.05    20.1    0    0    1    1.08668    -26.3119359    220    1    1.11    0.95;
    26    1    0    0    0    0    1    1.08409849    -5.59636868    220    1    1.11    0.95;
    27    1    0    0    0    0    1    1.08421625    -5.60933593    220    1    1.11    0.95;
    28    1    0    0    0    0    1    1.0394627    -21.2764084    220    1    1.11    0.95;
    29    1    0    0    0    0    1    1.03941382    -21.2741511    220    1    1.11    0.95;
    30    1    0    0    0    0    1    1.04203641    -18.7127326    220    1    1.11    0.95;
    31    1    0    0    0    0    1    1.04197506    -18.7255723    220    1    1.11    0.95;
    32    1    0    0    0    0    1    1.08408649    -3.25023449    220    1    1.11    0.95;
    33    1    0    0    0    0    1    1.08398508    -3.27399016    220    1    1.11    0.95;
    34    1    0    0    0    0    1    1.01676085    -16.32817    400    1    1.05    0.95;
    35    1    0    0    0    0    1    1.01672784    -16.3332789    400    1    1.05    0.95;
    36    1    0    0    0    0    1    1.00654082    -19.5647864    400    1    1.05    0.95;
    37    3    48.68    86.21    0    0    1    1.11    0    220    1    1.11    0.95;
    38    2    54.54    89.93    0    0    1    1.11    1.06211364    220    1    1.11    0.95;
    39    2    20.1    40.19    0    0    1    1.11    1.0548811    220    1    1.11    0.95;
    40    2    60.29    120.57    0    0    1    1.04749    -0.5197544    400    1    1.05    0.95;
    41    2    60.29    120.57    0    0    1    1.04746    -0.513609892    400    1    1.05    0.95;
    42    1    0    0    0    0    1    1.0312237    -20.5190453    220    1    1.11    0.95;
    43    1    0    0    0    0    1    1.03112507    -20.5227299    220    1    1.11    0.95;
    44    1    0    0    0    0    1    1.04992337    -2.20243611    400    1    1.05    0.95;
    45    1    0    0    0    0    1    1.04990822    -2.20599641    400    1    1.05    0.95;
    46    1    0    0    0    0    1    1.03889172    -19.5568489    220    1    1.11    0.95;
    47    1    0    0    0    0    1    1.05915062    -9.0114981    220    1    1.11    0.95;
    48    1    0    0    0    0    1    1.0591674    -9.02955508    220    1    1.11    0.95;
    49    1    0    0    0    0    1    1.09269802    -13.1635257    220    2    1.11    0.95;
    50    1    0    0    0    0    1    1.09112282    -12.7514007    220    2    1.11    0.95;
    51    1    0    0    0    0    1    1.10361624    -11.1108481    220    2    1.11    0.95;
    52    1    0    0    0    0    1    1.10359014    -11.1152481    220    2    1.11    0.95;
    53    1    0    0    0    0    1    1.07193553    -15.1613868    220    2    1.11    0.95;
    54    1    3.23    1    0    0    1    1.0993356    -9.8110387    220    2    1.11    0.95;
    55    1    0    0    0    0    1    1.09940704    -9.81045396    220    2    1.11    0.95;
    56    1    0    0    0    0    1    1.03593    -9.98604478    400    2    1.05    0.95;
    57    2    26.12    60.29    0    0    1    1.10173    -11.2497111    220    2    1.11    0.95;
    58    2    54.26    120.57    0    0    1    1.10171    -11.250105    220    2    1.11    0.95;
    59    2    13.06    30.14    0    0    1    1.10172    -11.2511075    220    2    1.11    0.95;
    60    2    26.12    50.24    0    0    1    1.05    -9.38144387    400    2    1.05    0.95;
    61    2    26.12    50.24    0    0    1    1.05    -9.37467263    400    2    1.05    0.95;
    62    1    0    0    0    0    1    1.09392064    -10.5491812    220    2    1.11    0.95;
    63    1    0    0    0    0    1    1.04483134    -13.9115067    400    2    1.05    0.95;
    64    1    0    0    0    0    1    1.04482929    -13.9126794    400    2    1.05    0.95;
    65    1    0    0    0    0    1    1.04771683    -10.9315228    400    2    1.05    0.95;
    66    1    0    0    0    0    1    1.07811882    -13.4351274    220    2    1.11    0.95;
    67    1    0    0    0    0    1    1.07811062    -13.4300167    220    2    1.11    0.95;
    68    1    0    0    0    0    1    1.04570476    -10.5978921    400    2    1.05    0.95;
    69    1    0    0    0    0    1    1.04569075    -10.5999226    400    2    1.05    0.95;
    70    2    13.06    30.14    0    0    1    1.10839    -9.84860101    220    2    1.11    0.95;
    71    2    13.06    30.14    0    0    1    1.10837    -9.85025628    220    2    1.11    0.95;
    72    2    13.06    30.14    0    0    1    1.04326    -10.2152979    400    2    1.05    0.95;
    73    1    26.12    60.29    0    0    1    1.0432884    -10.2168395    400    2    1.05    0.95;
    74    1    149.71    60.29    0    0    1    1.09851701    -12.2042891    220    2    1.11    0.95;
    75    1    29.14    10.05    0    0    1    1.09849802    -12.2059765    220    2    1.11    0.95;
    76    1    0    0    0    0    1    1.09639689    -10.7267062    220    2    1.11    0.95;
    77    1    0    0    0    0    1    1.09639763    -10.7229161    220    2    1.11    0.95;
    78    1    0    0    0    0    1    1.09737624    -12.1529456    220    2    1.11    0.95;
    79    1    0    0    0    0    1    1.09739012    -12.1568154    220    2    1.11    0.95;
    80    1    0    0    0    0    1    1.04994409    -11.5375689    400    2    1.05    0.95;
    81    1    0    0    0    0    1    1.04991026    -11.5491841    400    2    1.05    0.95;
    82    1    0    0    0    0    1    1.09993322    -12.2322862    220    2    1.11    0.95;
    83    1    0    0    0    0    1    1.10058413    -12.1041817    220    2    1.11    0.95;
    84    1    0    0    0    0    1    1.07962849    -12.2552613    220    2    1.11    0.95;
    85    1    0    0    0    0    1    1.09318674    -4.33816842    220    3    1.11    0.95;
    86    1    9.35    0    0    0    1    1.09446861    -9.16259537    220    3    1.11    0.95;
    87    1    8.18    0    0    0    1    1.09448578    -9.16284678    220    3    1.11    0.95;
    88    1    0    0    0    0    1    1.09956625    -2.96486167    220    3    1.11    0.95;
    89    1    0    0    0    0    1    1.09968884    -2.95202881    220    3    1.11    0.95;
    90    1    0    0    0    0    1    1.10941403    -2.55043495    220    3    1.11    0.95;
    91    1    0    0    0    0    1    1.10943363    -2.55270962    220    3    1.11    0.95;
    92    1    0    0    0    0    1    1.07461125    -4.34262451    220    3    1.11    0.95;
    93    1    0    0    0    0    1    1.0743633    -4.34940206    220    3    1.11    0.95;
    94    2    28.13    70.33    0    0    1    1.10879    -2.11960266    220    3    1.11    0.95;
    95    2    42.2    103.49    0    0    1    1.11    -1.64526403    220    3    1.11    0.95;
    96    1    7.72    -24.99    0    0    1    1.09582793    -3.1033308    220    3    1.11    0.95;
    97    1    0    0    0    0    1    1.09581166    -3.10433618    220    3    1.11    0.95;
    98    2    32.15    142.68    0    0    1    1.05    -4.71293912    400    3    1.05    0.95;
    99    1    0    0    0    0    1    1.04990437    -4.74028657    400    3    1.05    0.95;
    100    1    0    0    0    0    1    1.05971187    -6.31646343    220    3    1.11    0.95;
    101    1    0    0    0    0    1    1.10844219    -2.05528899    220    3    1.11    0.95;
    102    1    0    0    0    0    1    1.10843992    -2.05254264    220    3    1.11    0.95;
    103    1    45.11    7.94    0    0    1    1.09611123    -4.11215722    220    3    1.11    0.95;
    104    1    0    0    0    0    1    1.09605278    -4.11691517    220    3    1.11    0.95;
    105    1    0    0    0    0    1    1.10420446    -1.90262    220    3    1.11    0.95;
    106    1    0    0    0    0    1    1.10413922    -1.90483999    220    3    1.11    0.95;
    107    1    0    0    0    0    1    1.10027813    -3.68616378    220    3    1.11    0.95;
    108    1    0    0    0    0    1    1.10026439    -3.69305867    220    3    1.11    0.95;
    109    1    0    0    0    0    1    1.04331094    -2.27558636    400    3    1.05    0.95;
    110    1    0    0    0    0    1    1.04330968    -2.2771903    400    3    1.05    0.95;
    111    1    0    0    0    0    1    1.10684229    -1.75042868    220    3    1.11    0.95;
    112    1    0    0    0    0    1    1.10685485    -1.74911313    220    3    1.11    0.95;
    113    1    0    0    0    0    1    1.08095719    -3.71569985    220    3    1.11    0.95;
    114    1    0    0    0    0    1    1.0808628    -3.72874736    220    3    1.11    0.95;
    115    1    29.36    18.51    0    0    1    1.10079889    -3.14700213    220    3    1.11    0.95;
    116    1    0    0    0    0    1    1.10076718    -3.15914004    220    3    1.11    0.95;
    117    1    0    0    0    0    1    1.09452549    -9.14359011    220    3    1.11    0.95;
    118    1    0    0    0    0    1    1.09451685    -9.14060782    220    3    1.11    0.95;
    119    1    0    0    0    0    1    1.06064649    -4.67933769    220    3    1.11    0.95;
    120    1    0    0    0    0    1    1.0606167    -4.68073077    220    3    1.11    0.95;
    121    2    0    0    0    0    1    1.1099795    -1.76922594    220    3    1.11    0.95;
    122    2    10.05    44.21    0    0    1    1.11    -1.76731127    220    3    1.11    0.95;
    123    2    7.03    18.09    0    0    1    1.10998    -1.82328826    220    3    1.11    0.95;
    124    2    8.04    21.1    0    0    1    1.11    -1.81188567    220    3    1.11    0.95;
    125    1    0    0    0    0    1    1.09599756    -4.52605189    220    3    1.11    0.95;
    126    1    71.54    7.94    0    0    1    1.09603539    -4.53442059    220    3    1.11    0.95;
    127    1    0    0    0    0    1    1.07897194    -4.95604228    220    3    1.11    0.95;
    128    1    0    0    0    0    1    1.08907759    -2.65559992    220    3    1.11    0.95;
    129    1    0    0    0    0    1    1.08912216    -2.65771855    220    3    1.11    0.95;
    130    1    0    0    0    0    1    1.09440015    -3.16989132    220    3    1.11    0.95;
    131    1    0    0    0    0    1    1.09450032    -3.16163237    220    3    1.11    0.95;
    132    1    0    0    0    0    1    1.04136538    -5.56066639    400    3    1.05    0.95;
    133    1    0    0    0    0    1    1.04136538    -5.56066639    400    3    1.05    0.95;
    134    2    0    0    0    0    1    1.10755074    -2.69735763    220    3    1.11    0.95;
    135    1    9.04    20.1    0    0    1    1.10751845    -2.69983746    220    3    1.11    0.95;
    136    1    6.03    15.07    0    0    1    1.09262545    -4.22460493    220    3    1.11    0.95;
    137    1    0    0    0    0    1    1.09263737    -4.2361505    220    3    1.11    0.95;
    138    1    0    0    0    0    1    1.04764978    -11.3697116    400    3    1.05    0.95;
    139    1    0    0    0    0    1    1.04767698    -11.3716894    400    3    1.05    0.95;
    140    1    0    0    0    0    1    1.04984193    -6.09600467    400    3    1.05    0.95;
    141    1    0    0    0    0    1    1.04984009    -6.09413741    400    3    1.05    0.95;
    142    1    0    0    0    0    1    1.07638738    -5.21797266    220    3    1.11    0.95;
    143    1    0    0    0    0    1    1.0764451    -5.21550547    220    3    1.11    0.95;
    144    2    18.34    15.86    0    0    1    1.10995    -1.37088948    220    3    1.11    0.95;
    145    2    41.01    43.07    0    0    1    1.11    -1.34769337    220    3    1.11    0.95;
    146    2    28.13    66.31    0    0    1    1.03968    -4.608335    400    3    1.05    0.95;
    147    1    0    0    0    0    1    1.03973076    -4.60767825    400    3    1.05    0.95;
    148    1    0    0    0    0    1    1.09479469    -4.20914662    220    3    1.11    0.95;
    149    1    0    0    0    0    1    1.0948701    -4.20229785    220    3    1.11    0.95;
    150    1    0    0    0    0    1    1.10973351    -1.82840563    220    3    1.11    0.95;
    151    1    0    0    0    0    1    1.09824811    -3.82614723    220    3    1.11    0.95;
    152    2    0    0    0    0    1    1.07464324    -4.34285682    220    3    1.11    0.95;
    153    2    0    0    0    0    1    1.07439518    -4.34963291    220    3    1.11    0.95;
    154    1    7.84    20.1    0    0    1    1.08711248    -13.1269278    220    4    1.11    0.95;
    155    1    8.04    20.1    0    0    1    1.08710755    -13.1390526    220    4    1.11    0.95;
    156    1    0    0    0    0    1    1.06295142    -14.820975    220    4    1.11    0.95;
    157    1    0    0    0    0    1    1.06291523    -14.8224138    220    4    1.11    0.95;
    158    1    0    0    0    0    1    1.05399435    -16.569344    220    4    1.11    0.95;
    159    1    0    0    0    0    1    1.08052761    -13.1124257    220    4    1.11    0.95;
    160    1    0    0    0    0    1    1.0804429    -13.1217866    220    4    1.11    0.95;
    161    1    0    0    0    0    1    1.02169367    -12.6821754    400    4    1.05    0.95;
    162    1    0    0    0    0    1    1.02165922    -12.6846226    400    4    1.05    0.95;
    163    1    0    0    0    0    1    1.02443438    -28.782091    220    4    1.11    0.95;
    164    1    0    0    0    0    1    1.07664205    -35.8289298    220    4    1.11    0.95;
    165    1    0    0    0    0    1    1.07664205    -35.8289298    220    4    1.11    0.95;
    166    1    0    0    0    0    1    1.07061377    -31.3222593    220    4    1.11    0.95;
    167    1    0    0    0    0    1    1.07061377    -31.3222593    220    4    1.11    0.95;
    168    1    0    0    0    0    1    1.05332326    -16.8056648    220    4    1.11    0.95;
    169    2    0    0    0    0    1    1.07969499    -18.4582461    220    4    1.11    0.95;
    170    2    0    0    0    0    1    1.07966684    -18.4731743    220    4    1.11    0.95;
    171    1    0    0    0    0    1    1.10999125    -15.26039    220    4    1.11    0.95;
    172    1    12.06    30.14    0    0    1    1.103986    -33.7106536    220    4    1.11    0.95;
    173    2    9.39    2.43    0    0    1    1.10392966    -33.7110064    220    4    1.11    0.95;
    174    1    12.06    30.14    0    0    1    1.03614175    -30.8696807    400    4    1.05    0.95;
    175    2    24.11    60.29    0    0    1    1.03615    -30.8657322    400    4    1.05    0.95;
    176    1    0    0    0    0    1    0.993185995    -27.7074313    220    4    1.11    0.95;
    177    1    0    0    0    0    1    0.993302508    -27.7159422    220    4    1.11    0.95;
    178    1    0    0    0    0    1    1.04702859    -23.068952    220    4    1.11    0.95;
    179    1    0    0    0    0    1    1.04704052    -23.0731888    220    4    1.11    0.95;
    180    2    26.12    64.3    0    0    1    1.11    -9.34669205    220    4    1.11    0.95;
    181    1    26.12    64.3    0    0    1    1.10999438    -9.35466405    220    4    1.11    0.95;
    182    2    26.12    64.51    0    0    1    1.11    -9.33208771    220    4    1.11    0.95;
    183    1    26.12    64.51    0    0    1    1.04936387    -8.69088015    400    4    1.05    0.95;
    184    1    0    0    0    0    1    1.04933214    -8.69234773    400    4    1.05    0.95;
    185    1    0    0    0    0    1    1.08028655    -35.8640851    220    4    1.11    0.95;
    186    1    0    0    0    0    1    1.08028655    -35.8640851    220    4    1.11    0.95;
    187    1    0    0    0    0    1    1.00716879    -13.7207433    400    4    1.05    0.95;
    188    1    0    0    0    0    1    0.977621766    -19.5595741    400    4    1.05    0.95;
    189    1    0    0    0    0    1    1.01978659    -11.7316811    400    4    1.05    0.95;
    190    1    0    0    0    0    1    1.0198006    -11.7234429    400    4    1.05    0.95;
    191    1    12.06    30.14    0    0    1    1.0816696    -18.6153474    220    4    1.11    0.95;
    192    1    14.66    30.65    0    0    1    1.08136751    -18.6574345    220    4    1.11    0.95;
    193    1    38.18    64.3    0    0    1    1.03123637    -12.0148702    400    4    1.05    0.95;
    194    1    0    0    0    0    1    1.01277259    -35.4142316    220    4    1.11    0.95;
    195    1    0    0    0    0    1    1.01282422    -35.4192665    220    4    1.11    0.95;
    196    1    0    0    0    0    1    1.07605526    -35.9137025    220    4    1.11    0.95;
    197    1    0    0    0    0    1    1.07606065    -35.9148393    220    4    1.11    0.95;
    198    1    0    0    0    0    1    1.0189649    -29.9688128    220    4    1.11    0.95;
    199    1    0    0    0    0    1    1.01894168    -29.9604735    220    4    1.11    0.95;
    200    1    0    0    0    0    1    0.979097086    -31.6561722    400    4    1.05    0.95;
...
];

%% generator data
%    bus    Pg    Qg    Qmax    Qmin    Vg    mBase    status    Pmax    Pmin    Pc1    Pc2    Qc1min    Qc1max    Qc2min    Qc2max    ramp_agc    ramp_10    ramp_30    ramp_q    apf
mpc.gen = [
    24    110    85.3701479    140    -49    1.08673    235.3    1    221    110    0    0    0    0    0    0    0    0    0    0    0;
    25    135    -19.1048005    124    -22    1.08668    235.3    1    200    135    0    0    0    0    0    0    0    0    0    0    0;
    37    501.015846    75.0410521    190    -19    1.11    426    1    370    240    0    0    0    0    0    0    0    0    0    0    0;
    37    370    75.0410521    190    -19    1.11    426    1    370    240    0    0    0    0    0    0    0    0    0    0    0;
    38    370    18.0338661    190    -19    1.11    426    1    370    240    0    0    0    0    0    0    0    0    0    0    0;
    38    370    18.0338661    190    -19    1.11    426    1    370    240    0    0    0    0    0    0    0    0    0    0    0;
    39    370    99.6887515    190    -19    1.11    426    1    370    240    0    0    0    0    0    0    0    0    0    0    0;
    40    370    67.970309    190    -19    1.04749    426    1    370    240    0    0    0    0    0    0    0    0    0    0    0;
    40    370    67.970309    190    -19    1.04749    426    1    370    240    0    0    0    0    0    0    0    0    0    0    0;
    40    370    67.970309    190    -19    1.04749    426    1    370    240    0    0    0    0    0    0    0    0    0    0    0;
    41    370    -13.476616    190    -19    1.04746    426    1    370    240    0    0    0    0    0    0    0    0    0    0    0;
    41    370    -13.476616    190    -19    1.04746    426    1    370    240    0    0    0    0    0    0    0    0    0    0    0;
    41    370    -13.476616    190    -19    1.04746    426    1    370    240    0    0    0    0    0    0    0    0    0    0    0;
    57    111.38    41.6074756    152    -33    1.10173    235    1    215    110    0    0    0    0    0    0    0    0    0    0    0;
    57    126.35    41.6074756    152    -33    1.10173    235    1    220    125    0    0    0    0    0    0    0    0    0    0    0;
    58    164.41    86.5981819    149    -33    1.10171    235    1    225    125    0    0    0    0    0    0    0    0    0    0    0;
    58    0    0    149    -33    1    235    0    225    120    0    0    0    0    0    0    0    0    0    0    0;
    58    153.88    86.5981819    149    -33    1.10171    235    1    225    110    0    0    0    0    0    0    0    0    0    0    0;
    59    110    33.1721411    149    -33    1.10172    235    1    225    110    0    0    0    0    0    0    0    0    0    0    0;
    60    535    181.823693    363    -47    1.05    588    1    535    255    0    0    0    0    0    0    0    0    0    0    0;
    61    560    37.8681699    348    -100    1.05    588    1    560    250    0    0    0    0    0    0    0    0    0    0    0;
    70    129    -6.42012371    105    -11    1.10839    235    1    225    129    0    0    0    0    0    0    0    0    0    0    0;
    71    129    56.95324    105    -11    1.10837    235    1    225    129    0    0    0    0    0    0    0    0    0    0    0;
    71    0    0    99    -10    1    235    0    225    129    0    0    0    0    0    0    0    0    0    0    0;
    72    0    0    105    -11    1    235    0    225    129    0    0    0    0    0    0    0    0    0    0    0;
    72    129    -8.70995569    105    -11    1.04326    235    1    225    129    0    0    0    0    0    0    0    0    0    0    0;
    73    129    -10    99    -10    1.04328    235    1    225    129    0    0    0    0    0    0    0    0    0    0    0;
    73    129    -11    105    -11    1.04328    235    1    225    129    0    0    0    0    0    0    0    0    0    0    0;
    74    112    60    60    0    1.09864    120    1    112    0    0    0    0    0    0    0    0    0    0    0    0;
    94    220    96.4697398    131    -6    1.10879    270.6    1    220    125    0    0    0    0    0    0    0    0    0    0    0;
    94    225    96.4697398    131    -6    1.10879    270.6    1    225    140    0    0    0    0    0    0    0    0    0    0    0;
    95    225    72.6935163    131    -6    1.11    270.6    1    225    130    0    0    0    0    0    0    0    0    0    0    0;
    95    225    72.6935163    131    -6    1.11    270.6    1    225    125    0    0    0    0    0    0    0    0    0    0    0;
    95    225    72.6935163    131    -6    1.11    270.6    1    225    130    0    0    0    0    0    0    0    0    0    0    0;
    98    383    47.3783801    213    -31    1.05    426    1    383    220    0    0    0    0    0    0    0    0    0    0    0;
    98    380    17.1834304    119    -31    1.05    435.3    1    380    220    0    0    0    0    0    0    0    0    0    0    0;
    115    12    0    0    0    1.10086    12    1    12    0    0    0    0    0    0    0    0    0    0    0    0;
    115    6    0    0    0    1.10086    6    1    6    0    0    0    0    0    0    0    0    0    0    0    0;
    121    0    0    120    -10    1    270.6    0    225    120    0    0    0    0    0    0    0    0    0    0    0;
    122    225    62.3474242    120    -10    1.11    270.6    1    225    120    0    0    0    0    0    0    0    0    0    0    0;
    123    120    68.9062716    73    -1    1.10998    150    1    120    70    0    0    0    0    0    0    0    0    0    0    0;
    124    120    14.7894713    73    -1    1.11    150    1    120    70    0    0    0    0    0    0    0    0    0    0    0;
    134    0    0    80    0    1    150    0    120    70    0    0    0    0    0    0    0    0    0    0    0;
    135    120    80    80    0    1.10756    150    1    120    70    0    0    0    0    0    0    0    0    0    0    0;
    136    80    31    31    0    1.09273    117.5    1    110    80    0    0    0    0    0    0    0    0    0    0    0;
    144    215    44.0432531    135    -35    1.10995    270.6    1    215    135    0    0    0    0    0    0    0    0    0    0    0;
    145    215    42.3661533    135    -35    1.11    270.6    1    215    135    0    0    0    0    0    0    0    0    0    0    0;
    145    225    44.6416284    140    -35    1.11    270.6    1    225    135    0    0    0    0    0    0    0    0    0    0    0;
    146    225    -34.926853    140    -36    1.03968    270.6    1    225    135    0    0    0    0    0    0    0    0    0    0    0;
    146    220    -34.9451453    137    -36    1.03968    270.6    1    220    135    0    0    0    0    0    0    0    0    0    0    0;
    152    0    0    72    -29    1    150    0    135    -135    0    0    0    0    0    0    0    0    0    0    0;
    152    0    0    72    -29    1    150    0    135    -135    0    0    0    0    0    0    0    0    0    0    0;
    153    0    0    72    -29    1    150    0    135    -135    0    0    0    0    0    0    0    0    0    0    0;
    153    0    0    72    -29    1    150    0    135    -135    0    0    0    0    0    0    0    0    0    0    0;
    154    120    85    85    -15    1.0886    150    1    120    94    0    0    0    0    0    0    0    0    0    0    0;
    155    120    85    85    -15    1.0886    150    1    120    94    0    0    0    0    0    0    0    0    0    0    0;
    155    0    0    85    -15    1    150    0    120    94    0    0    0    0    0    0    0    0    0    0    0;
    169    0    0    25    0    1    51.4    0    50    40    0    0    0    0    0    0    0    0    0    0    0;
    170    0    0    90    -15    1    150    0    120    80    0    0    0    0    0    0    0    0    0    0    0;
    170    0    0    25    0    1    51.4    0    50    45    0    0    0    0    0    0    0    0    0    0    0;
    172    100    119    119    -31    1.10415    252.4    1    232    100    0    0    0    0    0    0    0    0    0    0    0;
    172    0    0    111    -21    1    237.5    0    205    135    0    0    0    0    0    0    0    0    0    0    0;
    173    0    0    111    -21    1    237.5    0    205    135    0    0    0    0    0    0    0    0    0    0    0;
    173    0    0    102    -15    1    252.4    0    222    90    0    0    0    0    0    0    0    0    0    0    0;
    174    90    -15    102    -15    1.03614    252.4    1    222    90    0    0    0    0    0    0    0    0    0    0    0;
    175    90    64.1440058    102    -15    1.03615    252.4    1    222    90    0    0    0    0    0    0    0    0    0    0    0;
    175    100    59.6737829    93    -10    1.03615    252.4    1    232    100    0    0    0    0    0    0    0    0    0    0    0;
    180    261    101.598597    127    -35    1.11    287.3    1    261    104    0    0    0    0    0    0    0    0    0    0    0;
    180    261    101.598597    127    -35    1.11    287.3    1    261    104    0    0    0    0    0    0    0    0    0    0    0;
    181    206    103    103    -17    1.11    238.4    1    206    120    0    0    0    0    0    0    0    0    0    0    0;
    181    261    127    127    -35    1.11    287.3    1    261    104    0    0    0    0    0    0    0    0    0    0    0;
    182    235    12.725509    145    -38    1.11    263.9    1    235    94    0    0    0    0    0    0    0    0    0    0    0;
    182    235    12.725509    145    -38    1.11    263.9    1    235    94    0    0    0    0    0    0    0    0    0    0    0;
    183    206    103    103    -17    1.0494    238.4    1    206    120    0    0    0    0    0    0    0    0    0    0    0;
    183    206    103    103    -17    1.0494    238.4    1    206    120    0    0    0    0    0    0    0    0    0    0    0;
    191    200    104    104    -23    1.08298    233.2    1    200    150    0    0    0    0    0    0    0    0    0    0    0;
    192    200    104    104    -23    1.08268    233.2    1    200    150    0    0    0    0    0    0    0    0    0    0    0;
    192    0    0    104    -23    1    233.2    0    200    145    0    0    0    0    0    0    0    0    0    0    0;
    192    0    0    104    -23    1    233.2    0    200    145    0    0    0    0    0    0    0    0    0    0    0;
    193    464    294    294    -259    1.03244    464    1    464    208    0    0    0    0    0    0    0    0    0    0    0;
    208    188    100    100    0    1.06751    218.3    1    188    76    0    0    0    0    0    0    0    0    0    0    0;
    240    179    -60.0776326    105    -62    1.02222    209    1    179    -200    0    0    0    0    0    0    0    0    0    0    0;
    240    179    -60.0776326    105    -62    1.02222    209    1    179    -200    0    0    0    0    0    0    0    0    0    0    0;
    240    0    0    160    -100    1    209    0    179    -200    0    0    0    0    0    0    0    0    0    0    0;
    241    179    -19.3272623    160    -100    1.02222    209    1    179    -200    0    0    0    0    0    0    0    0    0    0    0;
    244    220    10.4021333    100    0    1.11    177.1    1    220    112.5    0    0    0    0    0    0    0    0    0    0    0;
    254    55    20    20    0    1.10528    78.8    1    55    23    0    0    0    0    0    0    0    0    0    0    0;
    254    50    20    20    0    1.10528    68.8    1    50    25    0    0    0    0    0    0    0    0    0    0    0;
    254    50    20    20    0    1.10528    68.8    1    50    25    0    0    0    0    0    0    0    0    0    0    0;
    254    23    20    20    0    1.10528    27.6    1    23    7    0    0    0    0    0    0    0    0    0    0    0;
    267    2.1    1    1    0    1.05826    0.7    1    2.1    0.45    0    0    0    0    0    0    0    0    0    0    0;
    268    2.1    1    1    0    1.07506    0.7    1    2.1    0.45    0    0    0    0    0    0    0    0    0    0    0;
    278    0    0    5    0    1    10.3    0    7.15    5.85    0    0    0    0    0    0    0    0    0    0    0;
    279    0    0    5    0    1    10.3    0    7.15    5.85    0    0    0    0    0    0    0    0    0    0    0;
    295    5    3.75    3.75    0    1.09445    5    1    5    1    0    0    0    0    0    0    0    0    0    0    0;
    295    5    3.75    3.75    0    1.09445    5    1    5    1    0    0    0    0    0    0    0    0    0    0    0;
    295    5    3.75    3.75    0    1.09445    5    1    5    1    0    0    0    0    0    0    0    0    0    0    0;
    295    5    3.75    3.75    0    1.09445    5    1    5    1    0    0    0    0    0    0    0    0    0    0    0;
    310    370    190    190    -19    1    426    1    370    240    0    0    0    0    0    0    0    0    0    0    0;
    316    0    0    2    0    1    4    0    5.73    1    0    0    0    0    0    0    0    0    0    0    0;
    316    0    0    2    0    1    4    0    5.73    1    0    0    0    0    0    0    0    0    0    0    0;
    376    6.6    5    5    0    1.10193    8.4    1    6.6    5.4    0    0    0    0    0    0    0    0    0    0    0;
    379    0.9    1    1    0    1.11132    0.9    1    0.9    0.3    0    0    0    0    0    0    0    0    0    0    0;
    379    0.9    1    1    0    1.11132    0.9    1    0.9    0.3    0    0    0    0    0    0    0    0    0    0    0;
    379    0.9    1    1    0    1.11132    0.9    1    0.9    0.3    0    0    0    0    0    0    0    0    0    0    0;
    383    27    7    7    0    1.11054    31.3    1    27    11    0    0    0    0    0    0    0    0    0    0    0;
    383    30    7    7    0    1.11054    39    1    30    11    0    0    0    0    0    0    0    0    0    0    0;
    383    30    6    6    0    1.11054    40.6    1    30    9    0    0    0    0    0    0    0    0    0    0    0;
    384    55    15    15    0    1.11743    68.8    1    55    20    0    0    0    0    0    0    0    0    0    0    0;
    384    55    15    15    0    1.11743    68.8    1    55    20    0    0    0    0    0    0    0    0    0    0    0;
    385    40    7.35676548    15    0    1.11752    48.5    1    40    10    0    0    0    0    0    0    0    0    0    0    0;
    385    55    7.35676548    15    0    1.11752    68.8    1    55    20    0    0    0    0    0    0    0    0    0    0    0;
    387    50    20    20    0    1.1113    68.8    1    50    25    0    0    0    0    0    0    0    0    0    0    0;
    387    100    20    20    0    1.1113    147    1    100    55    0    0    0    0    0    0    0    0    0    0    0;
    388    60    40    40    0    1.11386    68.8    1    60    25    0    0    0    0    0    0    0    0    0    0    0;
    399    2.75    3    3    0    1.10799    3.8    1    2.75    2    0    0    0    0    0    0    0    0    0    0    0;
    433    1.65    1    1    0    1.09946    1.9    1    1.65    1.35    0    0    0    0    0    0    0    0    0    0    0;
    455    51.5    9.07439068    57    -22    1.11245    68.8    1    51.5    15    0    0    0    0    0    0    0    0    0    0    0;
    456    55    8.83069311    57    -22    1.11895    68.8    1    55    15    0    0    0    0    0    0    0    0    0    0    0;
    457    55    15.0561653    57    -22    1.11707    68.8    1    55    15    0    0    0    0    0    0    0    0    0    0    0;
    457    77    18.4374729    71    -28    1.11707    87.5    1    77    3    0    0    0    0    0    0    0    0    0    0    0;
    458    55    9.05973294    57    -22    1.11493    68.8    1    55    15    0    0    0    0    0    0    0    0    0    0    0;
    458    55    9.05973294    57    -22    1.11493    68.8    1    55    15    0    0    0    0    0    0    0    0    0    0    0;
    478    120    73.1175135    137    -47    1.11867    235.3    1    226    120    0    0    0    0    0    0    0    0    0    0    0;
    478    12    7.83375088    12    0    1.11867    48.5    1    25    12    0    0    0    0    0    0    0    0    0    0    0;
    479    10    12    12    0    1.10485    48.5    1    17    10    0    0    0    0    0    0    0    0    0    0    0;
    482    4.4    2    2    0    1.10618    5.6    1    4.4    3.6    0    0    0    0    0    0    0    0    0    0    0;
    500    0.34    0.2    0.2    0    1.09306    0.4    1    0.34    0    0    0    0    0    0    0    0    0    0    0    0;
    522    6.6    4    4    0    1.10119    8.4    1    6.6    3    0    0    0    0    0    0    0    0    0    0    0;
    527    3.41    3    3    0    1.11076    4.6    1    3.41    2.79    0    0    0    0    0    0    0    0    0    0    0;
    532    6.5    4.7    4.7    3.8    1.10157    6.5    1    6.5    1    0    0    0    0    0    0    0    0    0    0    0;
    532    6.5    4.7    4.7    3.8    1.10157    6.5    1    6.5    1    0    0    0    0    0    0    0    0    0    0    0;
    532    6.5    4.7    4.7    3.8    1.10157    6.5    1    6.5    1    0    0    0    0    0    0    0    0    0    0    0;
    543    2.97    2    2    0    1.06077    4.1    1    2.97    2.43    0    0    0    0    0    0    0    0    0    0    0;
    572    0    0    2    0    1    4.6    0    3.52    2.88    0    0    0    0    0    0    0    0    0    0    0;
    597    1.7    0.7    0.7    0    1.08723    1.9    1    1.7    1    0    0    0    0    0    0    0    0    0    0    0;
    597    0    0    0.7    0    1    1.9    0    1.7    1    0    0    0    0    0    0    0    0    0    0    0;
    603    4.4    3    3    0    1.11189    5.6    1    4.4    3    0    0    0    0    0    0    0    0    0    0    0;
    670    52    15.2489375    35    2    1.11956    62.5    1    52    37    0    0    0    0    0    0    0    0    0    0    0;
    670    30    10.431142    23    2    1.11956    37.5    1    30    10    0    0    0    0    0    0    0    0    0    0    0;
    670    105    37.7171533    85    6    1.11956    150    1    105    50    0    0    0    0    0    0    0    0    0    0    0;
    670    105    37.7171533    85    6    1.11956    150    1    105    50    0    0    0    0    0    0    0    0    0    0    0;
    671    30    10.8081721    23    2    1.12    37.5    1    30    10    0    0    0    0    0    0    0    0    0    0    0;
    671    30    10.8081721    23    2    1.12    37.5    1    30    10    0    0    0    0    0    0    0    0    0    0    0;
    671    30    11.6470456    25    2    1.12    37.5    1    30    10    0    0    0    0    0    0    0    0    0    0    0;
    671    125    39.1355045    85    6    1.12    150    1    125    68    0    0    0    0    0    0    0    0    0    0    0;
    671    105    39.1355045    85    6    1.12    150    1    105    50    0    0    0    0    0    0    0    0    0    0    0;
    692    1.54    0.7    0.7    0    1.09872    1.9    1    1.54    1.26    0    0    0    0    0    0    0    0    0    0    0;
    694    1.4    1    1    0    1.08197    3.8    1    1.4    0    0    0    0    0    0    0    0    0    0    0    0;
    700    35    18    18    2    1.11463    37.5    1    35    9    0    0    0    0    0    0    0    0    0    0    0;
    700    20    30    30    2    1.11463    37.5    1    20    9    0    0    0    0    0    0    0    0    0    0    0;
    701    35    18    18    2    1.11138    37.5    1    35    9    0    0    0    0    0    0    0    0    0    0    0;
    701    35    18    18    2    1.11138    37.5    1    35    9    0    0    0    0    0    0    0    0    0    0    0;
    701    35    18    18    2    1.11138    37.5    1    35    9    0    0    0    0    0    0    0    0    0    0    0;
    701    97    65    65    6    1.11138    121.3    1    97    30    0    0    0    0    0    0    0    0    0    0    0;
    702    35    18    18    2    1.11468    37.5    1    35    9    0    0    0    0    0    0    0    0    0    0    0;
    702    30    18    18    2    1.11468    37.5    1    30    9    0    0    0    0    0    0    0    0    0    0    0;
    702    28    14    14    2    1.11468    31.5    1    28    9    0    0    0    0    0    0    0    0    0    0    0;
    735    8    4    4    0    1.0952    5.3    1    8    1    0    0    0    0    0    0    0    0    0    0    0;
    735    2    2    2    0    1.0952    2    1    2    1    0    0    0    0    0    0    0    0    0    0    0;
    752    4.4    0.762077634    4.5    0.2    1.09731    5.8    1    4.4    3.6    0    0    0    0    0    0    0    0    0    0    0;
    766    2.7    0    0    0    1.09745    5.8    1    2.7    0    0    0    0    0    0    0    0    0    0    0    0;
    775    4.9    0    0    0    1.09432    4    1    4.9    0    0    0    0    0    0    0    0    0    0    0    0;
    798    93    14.9112338    30    0    1.11549    65    1    93    0    0    0    0    0    0    0    0    0    0    0    0;
    798    35.9    14.9112338    30    0    1.11549    65    1    35.9    0    0    0    0    0    0    0    0    0    0    0    0;
    801    0    0    0    0    1    12.4    0    2.5    0    0    0    0    0    0    0    0    0    0    0    0;
    808    6    0    0    0    1.09831    4.7    1    6    0    0    0    0    0    0    0    0    0    0    0    0;
    809    6    0    0    0    1.09858    5.8    1    6    0    0    0    0    0    0    0    0    0    0    0    0;
    846    130    38.4493579    149    -33    1.12    235    1    225    130    0    0    0    0    0    0    0    0    0    0    0;
    847    180.38    77.6783924    149    -33    1.12    235    1    225    110    0    0    0    0    0    0    0    0    0    0    0;
    854    2.5    0    0    0    1.07804    3    1    2.5    0    0    0    0    0    0    0    0    0    0    0    0;
    860    12    0    0    0    1.09667    12.4    1    12    0    0    0    0    0    0    0    0    0    0    0    0;
    870    170    30    30    0    1.11642    167.6    1    170    66    0    0    0    0    0    0    0    0    0    0    0;
    870    61    30    30    0    1.11642    71.6    1    61    34    0    0    0    0    0    0    0    0    0    0    0;
    876    21    0    0    0    1.10874    8.3    1    21    0    0    0    0    0    0    0    0    0    0    0    0;
    890    7    0    0    0    1.1085    5.6    1    7    0    0    0    0    0    0    0    0    0    0    0    0;
    893    0    0    0    0    1    3    0    10    0    0    0    0    0    0    0    0    0    0    0    0;
    908    30.4    0    0    0    1.10489    3    1    30.4    0    0    0    0    0    0    0    0    0    0    0    0;
    913    2    0    0    0    1.06654    0    1    2    0    0    0    0    0    0    0    0    0    0    0    0;
    918    0    0    0    0    1    1    0    1.9    0    0    0    0    0    0    0    0    0    0    0    0;
    929    0    0    0    0    1    2.1    0    2.02    1.34    0    0    0    0    0    0    0    0    0    0    0;
    934    129    29.1999438    105    -11    1.11698    235    1    225    129    0    0    0    0    0    0    0    0    0    0    0;
    936    36    16.3474963    30    0    1.09445    36.8    1    36    0    0    0    0    0    0    0    0    0    0    0    0;
    939    0    0    0    0    1    2.8    0    2.68    1.78    0    0    0    0    0    0    0    0    0    0    0;
    959    101    25.7545372    30    0    1.10735    100.8    1    101    49    0    0    0    0    0    0    0    0    0    0    0;
    965    0    0    0    0    1    1.7    0    12    0    0    0    0    0    0    0    0    0    0    0    0;
    980    12    19.8949216    30    0    1.09905    9.5    1    12    0    0    0    0    0    0    0    0    0    0    0    0;
    982    0    0    0    0    1    1.6    0    1.6    0.91    0    0    0    0    0    0    0    0    0    0    0;
    984    6    0    0    0    1.1072    5.9    1    6    1    0    0    0    0    0    0    0    0    0    0    0;
    989    8.3    0    0    0    1.09313    10.9    1    8.3    0    0    0    0    0    0    0    0    0    0    0    0;
    993    68    9.8395855    23    0    1.10184    52    1    68    5    0    0    0    0    0    0    0    0    0    0    0;
    993    0    0    23    0    1    52    0    68    5    0    0    0    0    0    0    0    0    0    0    0;
    993    0    0    11    0    1    24.5    0    31    -32    0    0    0    0    0    0    0    0    0    0    0;
    993    0    0    10    0    1    24.5    0    31    -32    0    0    0    0    0    0    0    0    0    0    0;
    1008    0    0    10    0    1    69    0    50    0    0    0    0    0    0    0    0    0    0    0    0;
    1008    92    41.4707193    74    -15    1.11496    57.6    1    125    92    0    0    0    0    0    0    0    0    0    0    0;
    1009    84    55.3388684    74    -15    1.10191    57.6    1    125    84    0    0    0    0    0    0    0    0    0    0    0;
    1009    0    0    10    0    1    40    0    30    0    0    0    0    0    0    0    0    0    0    0    0;
    1021    2.5    0    0    0    1.10219    3.3    1    2.5    0    0    0    0    0    0    0    0    0    0    0    0;
    1049    3.35    0    0    0    1.08347    3.8    1    3.35    2.23    0    0    0    0    0    0    0    0    0    0    0;
...
];

%% branch data
%    fbus    tbus    r    x    b    rateA    rateB    rateC    ratio    angle    status    angmin    angmax    Pf    Qf    Pt    Qt
mpc.branch = [
    9    11    0.00064    0.0305    0    400    400    400    1.10224    0    1    -360    360    -303.4104    -96.3754    304.0734    127.9692;
    13    12    0.00069    0.03946    0    250    250    250    0.9999    0    1    -360    360    -204.4272    -23.8778    204.7130    40.2216;
    21    19    0.00088    0.05709    0    330    330    330    0.9999    0    1    -360    360    -313.7156    23.6340    314.5501    30.5094;
    36    35    0.0007    0.03652    0    250    250    250    0.9999    0    1    -360    360    -158.3689    -20.3104    158.5450    29.4981;
    37    40    0.00036    0.02519    0    500    500    500    1.0686    0    1    -360    360    38.6622    -36.4472    -38.6528    37.1063;
    38    41    0.00036    0.02519    0    500    500    500    1.08671    0    1    -360    360    115.2852    -105.5840    -115.2009    111.4845;
    55    56    0.00034    0.02097    0    500    500    500    1.0755    0    1    -360    360    14.3897    -66.9993    -14.3744    67.9417;
    59    61    0.00034    0.02097    0    500    500    500    1.05955    0    1    -360    360    -171.2099    -45.0094    171.3085    51.0877;
    70    72    0.00081    0.03    0    400    400    400    1.0876    0    1    -360    360    20.4542    -82.4999    -20.3979    84.5867;
    107    109    0.00075    0.02445    -0.00832    330    330    330    1.06467    0    1    -360    360    -109.6907    -36.5547    109.7848    40.5197;
    108    110    0.0004    0.0253    0    500    500    500    1.07013    0    1    -360    360    -105.6899    -58.6027    105.7451    62.0980;
    144    147    0.00053    0.02875    -0.016    400    400    400    1.07702    0    1    -360    360    209.8709    -29.8930    -209.6464    43.7863;
    173    174    0.00064    0.0305    0    400    400    400    1.06172    0    1    -360    360    -174.6674    20.3284    174.8504    -11.6046;
    182    183    0.00023    0.023    0    500    500    500    1.07426    0    1    -360    360    -53.4716    -71.4740    53.4887    73.1905;
    181    184    0.00023    0.023    0    500    500    500    1.07426    0    1    -360    360    -55.2048    -71.3175    55.2223    73.0698;
    188    187    0.00032    0.04392    0    330    330    330    0.9999    0    1    -360    360    -228.4704    -52.2614    228.6543    77.4988;
    191    193    0.0003    0.02732    0    500    500    500    1.10871    0    1    -360    360    -425.1596    -169.5636    425.8200    229.7000;
    198    200    0.00035    0.02375    0    500    500    500    1.07313    0    1    -360    360    113.5214    -118.2007    -113.4172    125.2758;
    212    213    0.00051    0.0275    0    400    400    400    1.10394    0    1    -360    360    -72.7863    -95.4002    72.8590    99.3180;
    217    215    0.00084    0.06858    0    250    250    250    0.9999    0    1    -360    360    -141.5014    17.9407    141.6626    -4.7773;
    220    222    0.00033    0.02711    0    500    500    500    1.08613    0    1    -360    360    -170.0119    -118.4373    170.1624    130.7961;
    224    222    0.00032    0.0464    0    330    330    330    0.9999    0    1    -360    360    -221.6152    64.1351    221.7762    -40.7849;
    231    229    0.00113    0.05647    0    330    330    330    0.9999    0    1    -360    360    -110.4987    48.0546    110.6476    -40.6149;
    228    230    0.00075    0.02469    -0.008    330    330    330    1.04544    0    1    -360    360    -17.8782    -51.6398    17.9002    53.2002;
    3010    183    0.00029    0.00317    0.09184    1386    1386    1386    0    0    1    -360    360    -0.4881    16.0527    0.4893    -26.1591;
    3010    184    0.0003    0.00326    0.09536    1386    1386    1386    0    0    1    -360    360    0.4881    16.2093    -0.4869    -26.7024;
    244    84    0.01475    0.08595    0.13036    415    415    415    0    0    1    -360    360    220.0000    10.4021    -214.1652    7.9700;
    3007    92    0.01244    0.06959    0.1181    412    412    412    0    0    1    -360    360    -79.0577    31.3397    79.8679    -40.6248;
    3007    122    0.01207    0.06905    0.11519    412    412    412    0    0    1    -360    360    -167.2323    -3.1378    170.0818    5.5162;
    146    3008    0.00168    0.01604    0.51488    1206    1206    1206    0    0    1    -360    360    609.5265    -15.6733    -603.7500    15.5677;
    3011    172    0.0018    0.01616    0.0484    457    457    457    0    0    1    -360    360    -0.0445    38.3337    0.0694    -44.0410;
    3011    173    0.0018    0.01616    0.0484    457    457    457    0    0    1    -360    360    0.0445    38.7108    -0.0191    -44.4136;
    3012    63    0.00223    0.02209    0.69011    831    831    831    0    0    1    -360    360    -294.8047    -66.4415    296.6496    10.4283;
    3012    64    0.00223    0.02209    0.69011    831    831    831    0    0    1    -360    360    -294.7053    -66.4480    296.5489    10.4227;
    99    3006    0.00293    0.03054    0.95472    1206    1206    1206    0    0    1    -360    360    358.7714    -53.1136    -355.3500    -15.9986;
    58    30    0.01174    0.07014    0.12689    415    415    415    0    0    1    -360    360    224.3063    62.3498    -218.9651    -45.0293;
    37    107    0.00919    0.06614    0.10451    461    461    461    0    0    1    -360    360    119.2135    -2.8668    -118.1525    -2.2618;
    38    108    0.00822    0.05767    0.0982    465    465    465    0    0    1    -360    360    175.6961    -5.0648    -173.6366    7.5203;
    169    42    0.01698    0.12459    0.1957    373    373    373    0    0    1    -360    360    37.2476    26.1000    -36.8406    -44.9261;
    155    48    0.01298    0.06738    0.10284    335    335    335    0    0    1    -360    360    -108.8904    64.3719    110.7378    -66.6273;
    154    27    0.01068    0.0475    0.09495    415    415    415    0    0    1    -360    360    -303.0374    90.4817    312.1707    -61.0525;
    191    28    0.01436    0.10729    0.16081    373    373    373    0    0    1    -360    360    53.5416    27.1083    -53.0261    -41.3519;
    55    126    0.01488    0.08161    0.1148    347    347    347    0    0    1    -360    360    -129.4983    27.4713    131.7085    -29.1824;
    54    108    0.01116    0.07171    0.10367    362    362    362    0    0    1    -360    360    -174.2717    29.0398    177.1913    -22.8190;
    207    100    0.00552    0.05948    0.17077    427    427    427    0    0    1    -360    360    -205.0001    12.2283    207.1085    -8.5970;
    238    192    0.01118    0.06597    0.10778    362    362    362    0    0    1    -360    360    -257.4725    -21.4565    264.4707    50.7205;
    226    191    0.01682    0.08909    0.12993    400    400    400    0    0    1    -360    360    -186.4939    5.8400    191.8164    7.5757;
    225    192    0.01384    0.08702    0.13484    400    400    400    0    0    1    -360    360    -191.3331    0.4842    195.9285    13.0803;
    242    195    0.01517    0.09938    0.14492    274    274    274    0    0    1    -360    360    42.4075    45.4456    -41.7849    -57.0700;
    59    16    0.01347    0.07316    0.13418    377    377    377    0    0    1    -360    360    228.2787    53.9008    -222.0685    -35.6071;
    233    25    0.01403    0.10413    0.15949    373    373    373    0    0    1    -360    360    -103.1344    -24.6856    104.5129    16.6641;
    117    70    0.00374    0.0438    0.10096    476    476    476    0    0    1    -360    360    30.9147    -43.1237    -30.8419    31.7267;
    190    99    0.00194    0.02007    0.54307    1316    1316    1316    0    0    1    -360    360    -653.4462    -78.4662    661.4583    103.1841;
    60    12    0.0015    0.01506    0.4032    1386    1386    1386    0    0    1    -360    360    610.0921    115.4295    -604.7702    -105.4092;
    214    174    0.00296    0.03484    0.9296    1358    1358    1358    0    0    1    -360    360    -25.3574    -59.4944    25.3781    -39.6662;
    138    72    0.00169    0.01931    0.53814    866    866    866    0    0    1    -360    360    -110.9992    5.1476    111.2075    -61.5860;
    41    110    0.00137    0.01569    0.43744    1386    1386    1386    0    0    1    -360    360    215.4191    -11.8005    -214.8378    -29.3470;
    40    141    0.00234    0.02677    0.74653    1386    1386    1386    0    0    1    -360    360    396.8990    -65.4184    -393.5267    21.9019;
    34    222    0.00217    0.02513    0.67098    1386    1386    1386    0    0    1    -360    360    653.3109    7.9083    -644.3137    27.7026;
    138    80    0.00152    0.01739    0.48083    866    866    866    0    0    1    -360    360    17.1939    -41.6848    -17.1866    -11.1214;
    140    80    0.00468    0.05347    1.48883    831    831    831    0    0    1    -360    360    194.7948    -90.0070    -193.1809    -55.6639;
    99    44    0.00355    0.03617    0.95894    1150    1150    1150    0    0    1    -360    360    -133.3733    -36.8277    133.9545    -62.9569;
    109    40    0.00195    0.02103    0.5679    1316    1316    1316    0    0    1    -360    360    -159.5514    -34.4062    160.0076    -22.7371;
    63    139    0.00144    0.01446    0.51213    1386    1386    1386    0    0    1    -360    360    -333.4618    -7.8713    334.9338    -33.4067;
    14    6    0.013    0.09781    0.14013    461    461    461    0    0    1    -360    360    -246.4467    18.3948    253.7943    21.1836;
    43    14    0.00525    0.03847    0.06053    373    373    373    0    0    1    -360    360    -67.1038    -23.4885    67.3464    18.7601;
    33    6    0.00457    0.03351    0.05245    427    427    427    0    0    1    -360    360    202.7909    5.4450    -201.1887    0.1938;
    24    9    0.01469    0.10915    0.16676    427    427    427    0    0    1    -360    360    -128.1229    11.8235    130.2232    -15.9759;
    29    16    0.01262    0.09326    0.14324    373    373    373    0    0    1    -360    360    -41.8668    -4.8570    42.0725    -9.1457;
    37    7    0.00924    0.05052    0.07698    366    366    366    0    0    1    -360    360    279.0975    37.6768    -273.1208    -14.1863;
    24    3    0.01068    0.07936    0.12155    274    274    274    0    0    1    -360    360    145.0864    9.1798    -143.1586    -8.9338;
    37    27    0.00585    0.04027    0.07161    495    495    495    0    0    1    -360    360    298.2236    37.6465    -293.9168    -16.6206;
    39    26    0.00585    0.04027    0.07161    495    495    495    0    0    1    -360    360    351.9759    35.9638    -346.0163    -3.5593;
    15    8    0.00558    0.04147    0.0629    373    373    373    0    0    1    -360    360    -6.5941    -121.7436    7.3150    119.9465;
    46    14    0.00089    0.0063    0.0108    373    373    373    0    0    1    -360    360    -111.9360    -41.9783    112.0534    41.6402;
    31    15    0.00442    0.02374    0.04477    415    415    415    0    0    1    -360    360    36.1640    -11.6807    -36.1073    7.1218;
    47    7    0.00494    0.0269    0.04225    335    335    335    0    0    1    -360    360    -182.3945    -25.8783    183.8838    29.1790;
    26    6    0.00287    0.01671    0.02467    366    366    366    0    0    1    -360    360    128.9707    39.0328    -128.5245    -39.3090;
    37    1    0.0012    0.0089    0.01512    747    747    747    0    0    1    -360    360    87.1391    27.8627    -87.0571    -29.1119;
    39    2    0.0012    0.0089    0.01513    747    747    747    0    0    1    -360    360    71.3199    16.5402    -71.2674    -18.0113;
    38    32    0.00399    0.02901    0.04808    476    476    476    0    0    1    -360    360    321.0820    63.7720    -317.5992    -44.2371;
    34    12    0.00298    0.03445    0.94221    831    831    831    0    0    1    -360    360    -115.1324    -61.2518    115.5190    -32.4881;
    40    34    0.00358    0.04122    1.13382    1386    1386    1386    0    0    1    -360    360    713.7714    51.6192    -696.7260    23.8304;
    20    41    0.00342    0.03928    1.08288    1316    1316    1316    0    0    1    -360    360    -562.4216    -4.0942    572.7844    6.6865;
    11    22    0.00286    0.0335    0.89392    1358    1358    1358    0    0    1    -360    360    227.6758    -27.3936    -226.2544    -48.9631;
    11    20    0.0011    0.01259    0.3496    1358    1358    1358    0    0    1    -360    360    -247.2196    -2.9516    247.8620    -26.4720;
    44    41    0.00076    0.00868    0.24096    1358    1358    1358    0    0    1    -360    360    -367.4923    54.1959    368.4548    -69.7030;
    79    74    0.01054    0.06151    0.09306    316    316    316    0    0    1    -360    360    1.2430    -7.8262    -1.2424    -3.3889;
    76    71    0.00905    0.06723    0.10296    373    373    373    0    0    1    -360    360    -29.7104    -21.5034    29.7946    9.6157;
    83    49    0.0114    0.06587    0.09975    274    274    274    0    0    1    -360    360    35.0389    1.3831    -34.9182    -12.6818;
    66    49    0.0107    0.06628    0.10825    377    377    377    0    0    1    -360    360    -11.9395    -28.0584    11.9962    15.6563;
    74    57    0.00543    0.03733    0.06668    446    446    446    0    0    1    -360    360    -54.1759    -5.1479    54.3080    -2.0139;
    75    59    0.00543    0.03733    0.06668    446    446    446    0    0    1    -360    360    -54.1943    -5.1711    54.3265    -1.9898;
    75    49    0.00657    0.0481    0.0727    419    419    419    0    0    1    -360    360    42.7626    3.3671    -42.6597    -11.3407;
    84    67    0.00302    0.0201    0.03069    415    415    415    0    0    1    -360    360    117.4791    -10.0696    -117.1197    8.8892;
    67    53    0.007    0.05138    0.08084    373    373    373    0    0    1    -360    360    68.5898    -0.0587    -68.3052    -7.1947;
    51    70    0.00329    0.02506    0.0439    427    427    427    0    0    1    -360    360    -108.2652    -8.2985    108.5826    5.3467;
    52    50    0.00789    0.05868    0.08985    373    373    373    0    0    1    -360    360    60.7581    10.6429    -60.5021    -19.5592;
    71    52    0.00558    0.04062    0.06491    446    446    446    0    0    1    -360    360    67.1048    0.5711    -66.8994    -7.0151;
    83    51    0.00452    0.03366    0.05156    446    446    446    0    0    1    -360    360    -62.6854    -4.0769    62.8321    -1.0936;
    83    82    0.00134    0.00996    0.01337    377    377    377    0    0    1    -360    360    27.6465    2.6938    -27.6379    -4.2484;
...